  Page 1                                    Fri Dec 20 14:23:40 2024

  ******************************************************************
  *                           E P A N E T                          *
  *                   Hydraulic and Water Quality                  *
  *                   Analysis for Pipe Networks                   *
  *                         Version 2.2                            *
  ******************************************************************
  
  Analysis begun Fri Dec 20 14:23:40 2024

  Analysis ended Fri Dec 20 14:23:40 2024
