  Page 1                                    Sun Mar  1 20:41:06 2026

  ******************************************************************
  *                           E P A N E T                          *
  *                   Hydraulic and Water Quality                  *
  *                   Analysis for Pipe Networks                   *
  *                         Version 2.2                            *
  ******************************************************************
  
  Analysis begun Sun Mar  1 20:41:06 2026

  WARNING: Maximum trials exceeded at 0:00:00 hrs. System may be unstable.
   
  Analysis ended Sun Mar  1 20:41:06 2026
