  Page 1                                    Thu Jan 16 17:37:19 2025

  ******************************************************************
  *                           E P A N E T                          *
  *                   Hydraulic and Water Quality                  *
  *                   Analysis for Pipe Networks                   *
  *                         Version 2.2                            *
  ******************************************************************
  
  Analysis begun Thu Jan 16 17:37:19 2025

  Analysis ended Thu Jan 16 17:37:19 2025
