  Page 1                                    Wed Dec 11 10:23:15 2024

  ******************************************************************
  *                           E P A N E T                          *
  *                   Hydraulic and Water Quality                  *
  *                   Analysis for Pipe Networks                   *
  *                         Version 2.2                            *
  ******************************************************************
  
  Analysis begun Wed Dec 11 10:23:15 2024

  Analysis ended Wed Dec 11 10:23:15 2024
