  Page 1                                    Mon Jan 27 09:51:43 2025

  ******************************************************************
  *                           E P A N E T                          *
  *                   Hydraulic and Water Quality                  *
  *                   Analysis for Pipe Networks                   *
  *                         Version 2.2                            *
  ******************************************************************
  
  Analysis begun Mon Jan 27 09:51:43 2025

  Analysis ended Mon Jan 27 09:51:43 2025
