  Page 1                                    Thu Mar  5 08:01:47 2026

  ******************************************************************
  *                           E P A N E T                          *
  *                   Hydraulic and Water Quality                  *
  *                   Analysis for Pipe Networks                   *
  *                         Version 2.2                            *
  ******************************************************************
  
  Analysis begun Thu Mar  5 08:01:47 2026

  Analysis ended Thu Mar  5 08:01:47 2026
