  Page 1                                    Mon Jan  6 17:13:38 2025

  ******************************************************************
  *                           E P A N E T                          *
  *                   Hydraulic and Water Quality                  *
  *                   Analysis for Pipe Networks                   *
  *                         Version 2.2                            *
  ******************************************************************
  
  Analysis begun Mon Jan  6 17:13:38 2025

  Analysis ended Mon Jan  6 17:13:39 2025
