  Page 1                                    Mon Jan 20 09:27:57 2025

  ******************************************************************
  *                           E P A N E T                          *
  *                   Hydraulic and Water Quality                  *
  *                   Analysis for Pipe Networks                   *
  *                         Version 2.2                            *
  ******************************************************************
  
  Analysis begun Mon Jan 20 09:27:57 2025

  Analysis ended Mon Jan 20 09:27:57 2025
