  Page 1                                    Wed Jan 22 10:16:34 2025

  ******************************************************************
  *                           E P A N E T                          *
  *                   Hydraulic and Water Quality                  *
  *                   Analysis for Pipe Networks                   *
  *                         Version 2.2                            *
  ******************************************************************
  
  Analysis begun Wed Jan 22 10:16:34 2025

  Analysis ended Wed Jan 22 10:16:34 2025
