  Page 1                                    Sun Mar  1 20:45:12 2026

  ******************************************************************
  *                           E P A N E T                          *
  *                   Hydraulic and Water Quality                  *
  *                   Analysis for Pipe Networks                   *
  *                         Version 2.2                            *
  ******************************************************************
  
  Analysis begun Sun Mar  1 20:45:12 2026

  Analysis ended Sun Mar  1 20:45:12 2026
