  Page 1                                    Wed Mar 18 09:38:15 2026

  ******************************************************************
  *                           E P A N E T                          *
  *                   Hydraulic and Water Quality                  *
  *                   Analysis for Pipe Networks                   *
  *                         Version 2.2                            *
  ******************************************************************
  
  Analysis begun Wed Mar 18 09:38:15 2026

  Analysis ended Wed Mar 18 09:38:15 2026
