  Page 1                                    Fri Apr 11 16:21:55 2025

  ******************************************************************
  *                           E P A N E T                          *
  *                   Hydraulic and Water Quality                  *
  *                   Analysis for Pipe Networks                   *
  *                         Version 2.2                            *
  ******************************************************************
  
  Analysis begun Fri Apr 11 16:21:55 2025

  Analysis ended Fri Apr 11 16:21:55 2025
