  Page 1                                    Thu Apr 10 17:13:53 2025

  ******************************************************************
  *                           E P A N E T                          *
  *                   Hydraulic and Water Quality                  *
  *                   Analysis for Pipe Networks                   *
  *                         Version 2.2                            *
  ******************************************************************
  
  Analysis begun Thu Apr 10 17:13:53 2025

  Analysis ended Thu Apr 10 17:13:53 2025
