  Page 1                                    Tue Apr  8 14:02:00 2025

  ******************************************************************
  *                           E P A N E T                          *
  *                   Hydraulic and Water Quality                  *
  *                   Analysis for Pipe Networks                   *
  *                         Version 2.2                            *
  ******************************************************************
  
  Analysis begun Tue Apr  8 14:02:00 2025

  Analysis ended Tue Apr  8 14:02:00 2025
