  Page 1                                    Thu Mar 19 09:44:52 2026

  ******************************************************************
  *                           E P A N E T                          *
  *                   Hydraulic and Water Quality                  *
  *                   Analysis for Pipe Networks                   *
  *                         Version 2.2                            *
  ******************************************************************
  
  Analysis begun Thu Mar 19 09:44:52 2026

  WARNING: Maximum trials exceeded at 0:15:00 hrs. System may be unstable.
   
  WARNING: Maximum trials exceeded at 0:30:00 hrs. System may be unstable.
   
  WARNING: Maximum trials exceeded at 0:45:00 hrs. System may be unstable.
   
  WARNING: Maximum trials exceeded at 1:00:00 hrs. System may be unstable.
   
  Analysis ended Thu Mar 19 09:44:53 2026
