  Page 1                                    Thu Mar 26 22:44:53 2026

  ******************************************************************
  *                           E P A N E T                          *
  *                   Hydraulic and Water Quality                  *
  *                   Analysis for Pipe Networks                   *
  *                         Version 2.2                            *
  ******************************************************************
  
  Analysis begun Thu Mar 26 22:44:53 2026

  Analysis ended Thu Mar 26 22:44:54 2026
