  Page 1                                    Thu Aug  7 18:11:35 2025

  ******************************************************************
  *                           E P A N E T                          *
  *                   Hydraulic and Water Quality                  *
  *                   Analysis for Pipe Networks                   *
  *                         Version 2.2                            *
  ******************************************************************
  
  Analysis begun Thu Aug  7 18:11:35 2025

  Analysis ended Thu Aug  7 18:11:35 2025
