  Page 1                                    Fri Apr 18 12:23:17 2025

  ******************************************************************
  *                           E P A N E T                          *
  *                   Hydraulic and Water Quality                  *
  *                   Analysis for Pipe Networks                   *
  *                         Version 2.2                            *
  ******************************************************************
  
  Analysis begun Fri Apr 18 12:23:17 2025

  Analysis ended Fri Apr 18 12:23:17 2025
