  Page 1                                    Sat Mar 21 19:46:38 2026

  ******************************************************************
  *                           E P A N E T                          *
  *                   Hydraulic and Water Quality                  *
  *                   Analysis for Pipe Networks                   *
  *                         Version 2.2                            *
  ******************************************************************
  
  Analysis begun Sat Mar 21 19:46:38 2026

  Analysis ended Sat Mar 21 19:46:39 2026
